networks/opendss/CKT_4740_18734.dss
! OpenDSS script generated from multiconductor network
Clear

New Circuit.mc_network basekv=12.0 pu=1.000000 angle=0.00 frequency=60.0 phases=3 Mvasc3=143993 Mvasc1=47997.6
~ bus1=-8888882190138.1.2.3

! Line codes
New LineCode.1/0_ATW_2PH_12KV_2 nphases=2 units=km Rmatrix=[ 1e-05 | 0 1e-05 ] Xmatrix=[ 1e-05 | 0 1e-05 ] Cmatrix=[ 0 | 0 0 ]
New LineCode.336_ATW_3PH_12KV_3 nphases=3 units=km Rmatrix=[ 1e-05 | 0 1e-05 | 0 0 1e-05 ] Xmatrix=[ 1e-05 | 0 1e-05 | 0 0 1e-05 ] Cmatrix=[ 0 | 0 0 | 0 0 0 ]
New LineCode.1/0_ATW_3PH_12KV_3 nphases=3 units=km Rmatrix=[ 1e-05 | 0 1e-05 | 0 0 1e-05 ] Xmatrix=[ 1e-05 | 0 1e-05 | 0 0 1e-05 ] Cmatrix=[ 0 | 0 0 | 0 0 0 ]
New LineCode.1/0_JCN_3PH_12KV_3 nphases=3 units=km Rmatrix=[ 0.044734 | 0 0.044734 | 0 0 0.044734 ] Xmatrix=[ 0.013673 | 0 0.013673 | 0 0 0.013673 ] Cmatrix=[ 0 | 0 0 | 0 0 0 ]
New LineCode.2_CLP_3PH_12KV_3 nphases=3 units=km Rmatrix=[ 0.009594 | 0 0.009594 | 0 0 0.009594 ] Xmatrix=[ 0.002022 | 0 0.002022 | 0 0 0.002022 ] Cmatrix=[ 0 | 0 0 | 0 0 0 ]
New LineCode.350_CLP_2PH_12KV_2 nphases=2 units=km Rmatrix=[ 0.077145 | 0 0.077145 ] Xmatrix=[ 0.058614 | 0 0.058614 ] Cmatrix=[ 0 | 0 0 ]
New LineCode.1/0_JCN_2PH_12KV_2 nphases=2 units=km Rmatrix=[ 0.018835 | 0 0.018835 ] Xmatrix=[ 0.005757 | 0 0.005757 ] Cmatrix=[ 0 | 0 0 ]
New LineCode.350_CLP_3PH_12KV_3 nphases=3 units=km Rmatrix=[ 0.000423 | 0 0.000423 | 0 0 0.000423 ] Xmatrix=[ 0.000321 | 0 0.000321 | 0 0 0.000321 ] Cmatrix=[ 0 | 0 0 | 0 0 0 ]
New LineCode.2_CIC_1PH_12KV_1 nphases=1 units=km Rmatrix=[ 0.045834 ] Xmatrix=[ 0.009661 ] Cmatrix=[ 0 ]
New LineCode.2_CLP_2PH_12KV_2 nphases=2 units=km Rmatrix=[ 0.184599 | 0 0.184599 ] Xmatrix=[ 0.03891 | 0 0.03891 ] Cmatrix=[ 0 | 0 0 ]
New LineCode.1/0_CLP_2PH_12KV_2 nphases=2 units=km Rmatrix=[ 0.001116 | 0 0.001116 ] Xmatrix=[ 0.000341 | 0 0.000341 ] Cmatrix=[ 0 | 0 0 ]
New LineCode.1/0_CLP_3PH_12KV_3 nphases=3 units=km Rmatrix=[ 0.004705 | 0 0.004705 | 0 0 0.004705 ] Xmatrix=[ 0.001438 | 0 0.001438 | 0 0 0.001438 ] Cmatrix=[ 0 | 0 0 | 0 0 0 ]
New LineCode.2_CLP_1PH_12KV_1 nphases=1 units=km Rmatrix=[ 0.049923 ] Xmatrix=[ 0.010523 ] Cmatrix=[ 0 ]
New LineCode.2_JCN_3PH_12KV_3 nphases=3 units=km Rmatrix=[ 0.104388 | 0 0.104388 | 0 0 0.104388 ] Xmatrix=[ 0.022003 | 0 0.022003 | 0 0 0.022003 ] Cmatrix=[ 0 | 0 0 | 0 0 0 ]
New LineCode.2_JCN_2PH_12KV_2 nphases=2 units=km Rmatrix=[ 0.115223 | 0 0.115223 ] Xmatrix=[ 0.024287 | 0 0.024287 ] Cmatrix=[ 0 | 0 0 ]
New LineCode.2_CIC_2PH_12KV_2 nphases=2 units=km Rmatrix=[ 0.00333 | 0 0.00333 ] Xmatrix=[ 0.000702 | 0 0.000702 ] Cmatrix=[ 0 | 0 0 ]
New LineCode.1/0_ATW_1PH_12KV_2 nphases=2 units=km Rmatrix=[ 1e-05 | 0 1e-05 ] Xmatrix=[ 1e-05 | 0 1e-05 ] Cmatrix=[ 0 | 0 0 ]
New LineCode.6_CU_3PH_12KV_4 nphases=4 units=km Rmatrix=[ 0.155307 | 0 0.155307 | 0 0 0.155307 | 0 0 0 0.155307 ] Xmatrix=[ 0.055049 | 0 0.055049 | 0 0 0.055049 | 0 0 0 0.055049 ] Cmatrix=[ 0 | 0 0 | 0 0 0 | 0 0 0 0 ]
New LineCode.6_CU_3PH_12KV_3 nphases=3 units=km Rmatrix=[ 0.155307 | 0 0.155307 | 0 0 0.155307 ] Xmatrix=[ 0.055049 | 0 0.055049 | 0 0 0.055049 ] Cmatrix=[ 0 | 0 0 | 0 0 0 ]
New LineCode.4_CU_3PH_12KV_3 nphases=3 units=km Rmatrix=[ 0.071188 | 0 0.071188 | 0 0 0.071188 ] Xmatrix=[ 0.038798 | 0 0.038798 | 0 0 0.038798 ] Cmatrix=[ 0 | 0 0 | 0 0 0 ]
New LineCode.4_ACSR_2PH_12KV_2 nphases=2 units=km Rmatrix=[ 0.122076 | 0 0.122076 ] Xmatrix=[ 0.044795 | 0 0.044795 ] Cmatrix=[ 0 | 0 0 ]
New LineCode.1/0_ACSR_2PH_12KV_2 nphases=2 units=km Rmatrix=[ 0.008623 | 0 0.008623 ] Xmatrix=[ 0.006865 | 0 0.006865 ] Cmatrix=[ 0 | 0 0 ]
New LineCode.4_CU_2PH_12KV_2 nphases=2 units=km Rmatrix=[ 0.005047 | 0 0.005047 ] Xmatrix=[ 0.002751 | 0 0.002751 ] Cmatrix=[ 0 | 0 0 ]
New LineCode.1/0_ACSR_3PH_12KV_3 nphases=3 units=km Rmatrix=[ 0.006475 | 0 0.006475 | 0 0 0.006475 ] Xmatrix=[ 0.005156 | 0 0.005156 | 0 0 0.005156 ] Cmatrix=[ 0 | 0 0 | 0 0 0 ]
New LineCode.4_ACSR_3PH_12KV_3 nphases=3 units=km Rmatrix=[ 0.038492 | 0 0.038492 | 0 0 0.038492 ] Xmatrix=[ 0.014124 | 0 0.014124 | 0 0 0.014124 ] Cmatrix=[ 0 | 0 0 | 0 0 0 ]
New LineCode.2_ACSR_3PH_12KV_3 nphases=3 units=km Rmatrix=[ 0.010872 | 0 0.010872 | 0 0 0.010872 ] Xmatrix=[ 0.005845 | 0 0.005845 | 0 0 0.005845 ] Cmatrix=[ 0 | 0 0 | 0 0 0 ]
New LineCode.336_ATW_3PH_336_ATW_N_12KV_4 nphases=4 units=km Rmatrix=[ 1e-05 | 0 1e-05 | 0 0 1e-05 | 0 0 0 1e-05 ] Xmatrix=[ 1e-05 | 0 1e-05 | 0 0 1e-05 | 0 0 0 1e-05 ] Cmatrix=[ 0 | 0 0 | 0 0 0 | 0 0 0 0 ]
New LineCode.336_ATW_2PH_12KV_2 nphases=2 units=km Rmatrix=[ 1e-05 | 0 1e-05 ] Xmatrix=[ 1e-05 | 0 1e-05 ] Cmatrix=[ 0 | 0 0 ]
New LineCode.__2PH_12KV_2 nphases=2 units=km Rmatrix=[ 1e-05 | 0 1e-05 ] Xmatrix=[ 1e-05 | 0 1e-05 ] Cmatrix=[ 0 | 0 0 ]
New LineCode.1000_JCN_3PH_12KV_3 nphases=3 units=km Rmatrix=[ 0.023275 | 0 0.023275 | 0 0 0.023275 ] Xmatrix=[ 0.035232 | 0 0.035232 | 0 0 0.035232 ] Cmatrix=[ 0 | 0 0 | 0 0 0 ]
New LineCode.750_CLP_3PH_12KV_3 nphases=3 units=km Rmatrix=[ 0.015508 | 0 0.015508 | 0 0 0.015508 ] Xmatrix=[ 0.019046 | 0 0.019046 | 0 0 0.019046 ] Cmatrix=[ 0 | 0 0 | 0 0 0 ]
New LineCode.1/0_JCN_1PH_12KV_1 nphases=1 units=km Rmatrix=[ 0.00187 ] Xmatrix=[ 0.000572 ] Cmatrix=[ 0 ]
New LineCode.336_ACSR_3PH_12KV_3 nphases=3 units=km Rmatrix=[ 0.004972 | 0 0.004972 | 0 0 0.004972 ] Xmatrix=[ 0.011135 | 0 0.011135 | 0 0 0.011135 ] Cmatrix=[ 0 | 0 0 | 0 0 0 ]
New LineCode.350_AL_2PH_12KV_2 nphases=2 units=km Rmatrix=[ 0.015829 | 0 0.015829 ] Xmatrix=[ 0.012027 | 0 0.012027 ] Cmatrix=[ 0 | 0 0 ]
New LineCode.336_ACSR_2PH_12KV_2 nphases=2 units=km Rmatrix=[ 0.001069 | 0 0.001069 ] Xmatrix=[ 0.002393 | 0 0.002393 ] Cmatrix=[ 0 | 0 0 ]
New LineCode.2_ATW_3PH_12KV_3 nphases=3 units=km Rmatrix=[ 1e-05 | 0 1e-05 | 0 0 1e-05 ] Xmatrix=[ 1e-05 | 0 1e-05 | 0 0 1e-05 ] Cmatrix=[ 0 | 0 0 | 0 0 0 ]

! Lines
New Line.ND17189719$1870335E phases=2 Bus1=17189719.2.3 Bus2=17109266.2.3 LineCode=1/0_ATW_2PH_12KV_2 Length=0.188914 units=km
New Line.BF81439$2301390E phases=2 Bus1=213240133.1.2 Bus2=17109441.1.2 LineCode=1/0_ATW_2PH_12KV_2 Length=0.021338 units=km
New Line.ND17191697$1769510E phases=3 Bus1=17191697.1.2.3 Bus2=17109905.1.2.3 LineCode=336_ATW_3PH_12KV_3 Length=0.049211 units=km
New Line.ND17191214$2015409E phases=3 Bus1=17191214.1.2.3 Bus2=17110595.1.2.3 LineCode=1/0_ATW_3PH_12KV_3 Length=0.143914 units=km
New Line.ND17192417$2227057E phases=2 Bus1=17132737.1.2 Bus2=17192417.1.2 LineCode=1/0_ATW_2PH_12KV_2 Length=0.057469 units=km
New Line.4729765ET1T1$ND17189719 phases=2 Bus1=17189719.2.3 Bus2=174562023.2.3 LineCode=1/0_ATW_2PH_12KV_2 Length=0.037005 units=km
New Line.ND17191214$BF81524 phases=2 Bus1=17191214.2.3 Bus2=210433575.2.3 LineCode=1/0_ATW_2PH_12KV_2 Length=0.040228 units=km
New Line.ND17191697$BF88229 phases=2 Bus1=17191697.1.3 Bus2=221562645.1.3 LineCode=1/0_ATW_2PH_12KV_2 Length=0.072201 units=km
New Line.4277882E$4587104ET1T1 phases=2 Bus1=174561996.1.2 Bus2=241151060.1.2 LineCode=1/0_ATW_2PH_12KV_2 Length=0.055106 units=km
New Line.1769510E$4418690E phases=3 Bus1=17109905.1.2.3 Bus2=120769118.1.2.3 LineCode=336_ATW_3PH_12KV_3 Length=0.13326 units=km
New Line.ND17192417$2003649E phases=2 Bus1=17192417.1.2 Bus2=17109116.1.2 LineCode=1/0_ATW_2PH_12KV_2 Length=0.087628 units=km
New Line.4729765E$2365579E phases=2 Bus1=17109241.2.3 Bus2=17109216.2.3 LineCode=1/0_ATW_2PH_12KV_2 Length=0.105617 units=km
New Line.BF81437$2109563E phases=2 Bus1=213240172.1.2 Bus2=17109366.1.2 LineCode=1/0_ATW_2PH_12KV_2 Length=0.084385 units=km
New Line.BF81525$2301703E phases=2 Bus1=210433538.1.3 Bus2=17109570.1.3 LineCode=1/0_ATW_2PH_12KV_2 Length=0.072162 units=km
New Line.4180066E$4485425E phases=2 Bus1=17109041.1.2 Bus2=17168838.1.2 LineCode=1/0_ATW_2PH_12KV_2 Length=0.073697 units=km
New Line.ND17192417$4277882E phases=2 Bus1=241151060.1.2 Bus2=17192417.1.2 LineCode=1/0_ATW_2PH_12KV_2 Length=0.083459 units=km
New Line.ND17210510$BF81530 phases=2 Bus1=210433297.2.3 Bus2=17210510.2.3 LineCode=1/0_ATW_2PH_12KV_2 Length=0.006036 units=km
New Line.1870335E$4313102E phases=2 Bus1=17109266.2.3 Bus2=224155518.2.3 LineCode=1/0_ATW_2PH_12KV_2 Length=0.059669 units=km
New Line.2015409E$ND239781452 phases=3 Bus1=17110595.1.2.3 Bus2=239781452.1.2.3 LineCode=1/0_ATW_3PH_12KV_3 Length=0.063178 units=km
New Line.BF81524$20472T phases=2 Bus1=210433576.2.3 Bus2=107555481.2.3 LineCode=1/0_ATW_2PH_12KV_2 Length=0.007308 units=km
New Line.4718558E$4729765ET1T1 phases=2 Bus1=174562022.1.2 Bus2=17109291.1.2 LineCode=1/0_ATW_2PH_12KV_2 Length=0.120697 units=km
New Line.2109565E$2109563E phases=2 Bus1=17109366.1.2 Bus2=17109341.1.2 LineCode=1/0_ATW_2PH_12KV_2 Length=0.072451 units=km
New Line.2301703E$2301702E phases=2 Bus1=17109570.1.3 Bus2=17109595.1.3 LineCode=1/0_ATW_2PH_12KV_2 Length=0.077478 units=km
New Line.2015508E$BF88229 phases=2 Bus1=221562646.1.3 Bus2=17109674.1.3 LineCode=1/0_ATW_2PH_12KV_2 Length=0.087729 units=km
New Line.ND17210510$2242300E phases=2 Bus1=17210510.2.3 Bus2=17110470.2.3 LineCode=1/0_ATW_2PH_12KV_2 Length=0.094115 units=km
New Line.ND239781452$4530570E phases=3 Bus1=239781452.1.2.3 Bus2=17110620.1.2.3 LineCode=1/0_ATW_3PH_12KV_3 Length=0.070612 units=km
New Line.4313102E$4313103E phases=2 Bus1=224155518.2.3 Bus2=17132987.2.3 LineCode=1/0_ATW_2PH_12KV_2 Length=0.098438 units=km
New Line.BF81437$ND17189353 phases=2 Bus1=214953378.1.2 Bus2=17189353.1.2 LineCode=1/0_ATW_2PH_12KV_2 Length=0.00817 units=km
New Line.ND17210510$4136765E phases=2 Bus1=17210510.2.3 Bus2=224480734.2.3 LineCode=1/0_ATW_2PH_12KV_2 Length=0.150172 units=km
New Line.4530573E$ND17210510 phases=2 Bus1=17210510.2.3 Bus2=95453259.2.3 LineCode=1/0_ATW_2PH_12KV_2 Length=0.08297 units=km
New Line.4418690E$ND99172039 phases=3 Bus1=120769118.1.2.3 Bus2=99172039.1.2.3 LineCode=336_ATW_3PH_12KV_3 Length=0.034944 units=km
New Line.ND18992972$ND237250269 phases=2 Bus1=18992972.1.3 Bus2=-77777718992972.1.3 LineCode=1/0_ATW_2PH_12KV_2 Length=0.019049 units=km
New Line.1661060E$ND237249421 phases=2 Bus1=18935928.2.3 Bus2=-77777718935928.2.3 LineCode=1/0_ATW_2PH_12KV_2 Length=0.033546 units=km
New Line.4583226E$ND17129207 phases=2 Bus1=224250077.2.3 Bus2=-777777224250077.2.3 LineCode=1/0_ATW_2PH_12KV_2 Length=0.154052 units=km
New Line.ND141543221$ND241486836 phases=3 Bus1=141543221.1.2.3 Bus2=-777777141543221.1.2.3 LineCode=336_ATW_3PH_12KV_3 Length=0.023126 units=km
New Line.4342418E$4342420E phases=3 Bus1=18921519.1.2.3 Bus2=18921490.1.2.3 LineCode=336_ATW_3PH_12KV_3 Length=0.136022 units=km
New Line.RCS2232$ND194363706 phases=3 Bus1=17170592.1.2.3 Bus2=194363706.1.2.3 LineCode=1/0_ATW_3PH_12KV_3 Length=0.016612 units=km
New Line.4566290E$4566292E phases=2 Bus1=99110921.2.3 Bus2=91187569.2.3 LineCode=1/0_ATW_2PH_12KV_2 Length=0.150339 units=km
New Line.BF81531$4530113E phases=2 Bus1=210433259.1.2 Bus2=99172026.1.2 LineCode=1/0_ATW_2PH_12KV_2 Length=0.028785 units=km
New Line.2227386E$2227388E phases=2 Bus1=18922810.2.3 Bus2=18922785.2.3 LineCode=1/0_ATW_2PH_12KV_2 Length=0.102862 units=km
New Line.2238398E$2238399E phases=2 Bus1=18932373.2.3 Bus2=18922835.2.3 LineCode=1/0_ATW_2PH_12KV_2 Length=0.050497 units=km
New Line.ND18978602$2189094E phases=2 Bus1=18978602.2.3 Bus2=18922910.2.3 LineCode=1/0_ATW_2PH_12KV_2 Length=0.069528 units=km
New Line.4107683E$4107684E phases=2 Bus1=219828583.1.3 Bus2=18923285.1.3 LineCode=1/0_ATW_2PH_12KV_2 Length=0.050108 units=km
New Line.BF81528$2015511E phases=2 Bus1=210433400.1.3 Bus2=17109649.1.3 LineCode=1/0_ATW_2PH_12KV_2 Length=0.033317 units=km
New Line.4332797E$1769517E phases=3 Bus1=17167811.1.2.3 Bus2=17109992.1.2.3 LineCode=336_ATW_3PH_12KV_3 Length=0.04973 units=km
New Line.2339614E$4180091E phases=2 Bus1=17109516.1.2 Bus2=17140432.1.2 LineCode=1/0_ATW_2PH_12KV_2 Length=0.11919 units=km
New Line.BF81527$4718557E phases=2 Bus1=210433359.1.3 Bus2=17169300.1.3 LineCode=1/0_ATW_2PH_12KV_2 Length=0.092995 units=km
New Line.BF81529$ND17191157 phases=2 Bus1=210433441.1.3 Bus2=17191157.1.3 LineCode=1/0_ATW_2PH_12KV_2 Length=0.025968 units=km
New Line.2015413E$2015414E phases=3 Bus1=232460010.1.2.3 Bus2=74904563.1.2.3 LineCode=1/0_ATW_3PH_12KV_3 Length=0.036993 units=km
New Line.4718557E$2059421E phases=2 Bus1=17169300.1.3 Bus2=17109699.1.3 LineCode=1/0_ATW_2PH_12KV_2 Length=0.101087 units=km
New Line.ND17191157$4779965E phases=2 Bus1=17191157.1.3 Bus2=17109753.1.3 LineCode=1/0_ATW_2PH_12KV_2 Length=0.187782 units=km
New Line.ND17191157$2320909E phases=2 Bus1=17191157.1.3 Bus2=17109853.1.3 LineCode=1/0_ATW_2PH_12KV_2 Length=0.055413 units=km
New Line.BF88221$20345T phases=2 Bus1=221562683.1.2 Bus2=17110720.1.2 LineCode=1/0_ATW_2PH_12KV_2 Length=0.055354 units=km
New Line.2015416E$2015414E phases=3 Bus1=74904563.1.2.3 Bus2=17138437.1.2.3 LineCode=1/0_ATW_3PH_12KV_3 Length=0.146571 units=km
New Line.1769517E$ND17213020 phases=3 Bus1=17109992.1.2.3 Bus2=17213020.1.2.3 LineCode=336_ATW_3PH_12KV_3 Length=0.090917 units=km
New Line.ND17191157$2199630E phases=2 Bus1=17191157.1.3 Bus2=213952742.1.3 LineCode=1/0_ATW_2PH_12KV_2 Length=0.143129 units=km
New Line.ND18978602$2305940E phases=2 Bus1=18978602.2.3 Bus2=18959898.2.3 LineCode=1/0_ATW_2PH_12KV_2 Length=0.069166 units=km
New Line.2305940E$2338225E phases=2 Bus1=18932298.2.3 Bus2=18959898.2.3 LineCode=1/0_ATW_2PH_12KV_2 Length=0.053006 units=km
New Line.2226945E$2226946E phases=2 Bus1=17092081.1.2 Bus2=17092131.1.2 LineCode=1/0_ATW_2PH_12KV_2 Length=0.059355 units=km
New Line.1559482E$PS5540 phases=3 Bus1=174562263.1.2.3 Bus2=17093461.1.2.3 LineCode=336_ATW_3PH_12KV_3 Length=0.074061 units=km
New Line.BF88217$2365563E phases=3 Bus1=221562974.1.2.3 Bus2=18922510.1.2.3 LineCode=1/0_ATW_3PH_12KV_3 Length=0.021226 units=km
New Line.2227043E$BF81223 phases=2 Bus1=174096530.2.3 Bus2=18922610.2.3 LineCode=1/0_ATW_2PH_12KV_2 Length=0.034757 units=km
New Line.2189094E$2330081E phases=2 Bus1=18922910.2.3 Bus2=18922885.2.3 LineCode=1/0_ATW_2PH_12KV_2 Length=0.066205 units=km
New Line.2238399E$2259949E phases=2 Bus1=18922835.2.3 Bus2=18932273.2.3 LineCode=1/0_ATW_2PH_12KV_2 Length=0.117163 units=km
New Line.BF88216$2301373E phases=2 Bus1=221563010.2.3 Bus2=18932348.2.3 LineCode=1/0_ATW_2PH_12KV_2 Length=0.05169 units=km
New Line.2227388E$2227389E phases=2 Bus1=18922785.2.3 Bus2=18949071.2.3 LineCode=1/0_ATW_2PH_12KV_2 Length=0.067131 units=km
New Line.BF81523$4136496E phases=2 Bus1=210433959.2.3 Bus2=94124563.2.3 LineCode=1/0_ATW_2PH_12KV_2 Length=0.012363 units=km
New Line.2320909E$2330068E phases=2 Bus1=17109853.1.3 Bus2=17109878.1.3 LineCode=1/0_ATW_2PH_12KV_2 Length=0.205283 units=km
New Line.ND17213020$4073201E phases=3 Bus1=17213020.1.2.3 Bus2=17110071.1.2.3 LineCode=336_ATW_3PH_12KV_3 Length=0.132055 units=km
New Line.2015416E$2015417E phases=3 Bus1=17138437.1.2.3 Bus2=17110695.1.2.3 LineCode=1/0_ATW_3PH_12KV_3 Length=0.081472 units=km
New Line.4136496E$4136497E phases=2 Bus1=94124563.2.3 Bus2=17140349.2.3 LineCode=1/0_ATW_2PH_12KV_2 Length=0.080324 units=km
New Line.2226946E$2226967E phases=2 Bus1=17092131.1.2 Bus2=17092156.1.2 LineCode=1/0_ATW_2PH_12KV_2 Length=0.088587 units=km
New Line.1559482E$4136441E phases=3 Bus1=17093461.1.2.3 Bus2=17167582.1.2.3 LineCode=336_ATW_3PH_12KV_3 Length=0.079088 units=km
New Line.2365563E$4180291E phases=3 Bus1=18922510.1.2.3 Bus2=18922485.1.2.3 LineCode=1/0_ATW_3PH_12KV_3 Length=0.036355 units=km
New Line.2227043E$2322213E phases=2 Bus1=18922610.2.3 Bus2=18922585.2.3 LineCode=1/0_ATW_2PH_12KV_2 Length=0.046416 units=km
New Line.2227389E$2227390E phases=2 Bus1=18949071.2.3 Bus2=18922760.2.3 LineCode=1/0_ATW_2PH_12KV_2 Length=0.063369 units=km
New Line.2330081E$2330082E phases=2 Bus1=18922885.2.3 Bus2=18922860.2.3 LineCode=1/0_ATW_2PH_12KV_2 Length=0.036387 units=km
New Line.2301373E$2301375E phases=2 Bus1=18932348.2.3 Bus2=18932323.2.3 LineCode=1/0_ATW_2PH_12KV_2 Length=0.132408 units=km
New Line.2259949E$ND18978710 phases=2 Bus1=18932273.2.3 Bus2=18978710.2.3 LineCode=1/0_ATW_2PH_12KV_2 Length=0.051943 units=km
New Line.4136441E$ND17189818 phases=3 Bus1=17167582.1.2.3 Bus2=17189818.1.2.3 LineCode=336_ATW_3PH_12KV_3 Length=0.010973 units=km
New Line.2226967E$ND17211161 phases=2 Bus1=17092156.1.2 Bus2=17211161.1.2 LineCode=1/0_ATW_2PH_12KV_2 Length=0.019288 units=km
New Line.2322213E$2330073E phases=2 Bus1=18922585.2.3 Bus2=18922560.2.3 LineCode=1/0_ATW_2PH_12KV_2 Length=0.046722 units=km
New Line.2227390E$ND18976540 phases=2 Bus1=18922760.2.3 Bus2=18976540.2.3 LineCode=1/0_ATW_2PH_12KV_2 Length=0.06184 units=km
New Line.4180291E$ND18978161 phases=3 Bus1=18922485.1.2.3 Bus2=18978161.1.2.3 LineCode=1/0_ATW_3PH_12KV_3 Length=0.017151 units=km
New Line.ND18978710$BF81421 phases=2 Bus1=18978710.2.3 Bus2=209874069.2.3 LineCode=1/0_ATW_2PH_12KV_2 Length=0.018006 units=km
New Line.ND18978710$BF81420 phases=2 Bus1=18978710.2.3 Bus2=215263253.2.3 LineCode=1/0_ATW_2PH_12KV_2 Length=0.001937 units=km
New Line.2330073E$4136488E phases=2 Bus1=18922560.2.3 Bus2=107448783.2.3 LineCode=1/0_ATW_2PH_12KV_2 Length=0.077509 units=km
New Line.ND17211161$2370286E phases=2 Bus1=17211161.1.2 Bus2=17092181.1.2 LineCode=1/0_ATW_2PH_12KV_2 Length=0.10626 units=km
New Line.ND17211161$4136410E phases=2 Bus1=17211161.1.2 Bus2=17092206.1.2 LineCode=1/0_ATW_2PH_12KV_2 Length=0.079417 units=km
New Line.4874697E$4939426E phases=2 Bus1=17110720.1.2 Bus2=17169067.1.2 LineCode=1/0_ATW_2PH_12KV_2 Length=0.135333 units=km
New Line.ND17213020$BF81532 phases=3 Bus1=17213020.1.2.3 Bus2=210433068.1.2.3 LineCode=1/0_ATW_3PH_12KV_3 Length=0.006801 units=km
New Line.2330068E$4073174E phases=2 Bus1=17109878.1.3 Bus2=105605002.1.3 LineCode=1/0_ATW_2PH_12KV_2 Length=0.045593 units=km
New Line.4939426E$4965885E phases=2 Bus1=17169067.1.2 Bus2=17169042.1.2 LineCode=1/0_ATW_2PH_12KV_2 Length=0.061298 units=km
New Line.X17113ET$ND17189818 phases=2 Bus1=17189818.1.2 Bus2=17169753.1.2 LineCode=1/0_ATW_2PH_12KV_2 Length=0.006423 units=km
New Line.ND17189818$ND17189200 phases=3 Bus1=17189818.1.2.3 Bus2=17189200.1.2.3 LineCode=336_ATW_3PH_12KV_3 Length=0.084164 units=km
New Line.ND18978161$1964094E phases=3 Bus1=18978161.1.2.3 Bus2=18922261.1.2.3 LineCode=1/0_ATW_3PH_12KV_3 Length=0.122755 units=km
New Line.ND18976540$2301052E phases=2 Bus1=18976540.2.3 Bus2=18922685.2.3 LineCode=1/0_ATW_2PH_12KV_2 Length=0.06117 units=km
New Line.ND18976540$2322204E phases=2 Bus1=18976540.2.3 Bus2=18922710.2.3 LineCode=1/0_ATW_2PH_12KV_2 Length=0.0699 units=km
New Line.ND18976540$2227393E phases=2 Bus1=18976540.2.3 Bus2=18922735.2.3 LineCode=1/0_ATW_2PH_12KV_2 Length=0.080303 units=km
New Line.ND18978161$ND239332232 phases=3 Bus1=18978161.1.2.3 Bus2=239332232.1.2.3 LineCode=1/0_ATW_3PH_12KV_3 Length=0.033654 units=km
New Line.216372676$P5645774-1 phases=3 Bus1=216372679.1.2.3 Bus2=216372692.1.2.3 LineCode=1/0_JCN_3PH_12KV_3 Length=0.003143 units=km
New Line.69887218$P5645775-1 phases=3 Bus1=69887221.1.2.3 Bus2=69887155.1.2.3 LineCode=2_CLP_3PH_12KV_3 Length=0.003548 units=km
New Line.PH7883$P5426039-1 phases=2 Bus1=17138133.1.3 Bus2=17138149.1.3 LineCode=350_CLP_2PH_12KV_2 Length=0.347437 units=km
New Line.215624075$4831896E phases=2 Bus1=215624039.1.2 Bus2=215624077.1.2 LineCode=1/0_JCN_2PH_12KV_2 Length=0.096944 units=km
New Line.686592E$17171641 phases=3 Bus1=17138593.1.2.3 Bus2=17171643.1.2.3 LineCode=350_CLP_3PH_12KV_3 Length=0.001905 units=km
New Line.215624075$P5708359-1 phases=2 Bus1=215624078.1.2 Bus2=215624093.1.2 LineCode=1/0_JCN_2PH_12KV_2 Length=0.004541 units=km
New Line.4418100E$17188928 phases=1 Bus1=17153825.3 Bus2=17188930.3 LineCode=2_CIC_1PH_12KV_1 Length=0.040977 units=km
New Line.17171641$ND17192067 phases=3 Bus1=17171644.1.2.3 Bus2=17192067.1.2.3 LineCode=350_CLP_3PH_12KV_3 Length=0.027839 units=km
New Line.17140895$ND17192067 phases=2 Bus1=17192067.2.3 Bus2=17140897.2.3 LineCode=2_CLP_2PH_12KV_2 Length=0.033609 units=km
New Line.P5471206-2$17170825 phases=2 Bus1=17170828.1.3 Bus2=17139017.1.3 LineCode=2_CLP_2PH_12KV_2 Length=0.010078 units=km
New Line.17188970$FD705 phases=2 Bus1=17168398.1.3 Bus2=17188972.1.3 LineCode=1/0_CLP_2PH_12KV_2 Length=0.178952 units=km
New Line.17170855$ND17189259 phases=3 Bus1=17170858.1.2.3 Bus2=17189259.1.2.3 LineCode=2_CLP_3PH_12KV_3 Length=0.018009 units=km
New Line.194634383$4418707E phases=3 Bus1=17153163.1.2.3 Bus2=194634385.1.2.3 LineCode=1/0_CLP_3PH_12KV_3 Length=0.024482 units=km
New Line.17170911$ND17189259 phases=3 Bus1=17189259.1.2.3 Bus2=17170914.1.2.3 LineCode=2_CLP_3PH_12KV_3 Length=0.054762 units=km
New Line.ND17189259$17170921 phases=2 Bus1=17189259.1.3 Bus2=17170924.1.3 LineCode=2_CLP_2PH_12KV_2 Length=0.019499 units=km
New Line.4530128E$108330607 phases=2 Bus1=108330567.1.2 Bus2=108330609.1.2 LineCode=2_CLP_2PH_12KV_2 Length=0.004333 units=km
New Line.194634383$ND17153198 phases=3 Bus1=194634386.1.2.3 Bus2=17153176.1.2.3 LineCode=1/0_CLP_3PH_12KV_3 Length=0.010301 units=km
New Line.P5471502-1$17188970 phases=2 Bus1=17188973.1.3 Bus2=17168414.1.3 LineCode=1/0_CLP_2PH_12KV_2 Length=0.014592 units=km
New Line.108330607$P5487003-1 phases=2 Bus1=108330610.1.2 Bus2=108330502.1.2 LineCode=2_CLP_2PH_12KV_2 Length=0.001554 units=km
New Line.PMS1239-1$17170921 phases=2 Bus1=17170923.1.3 Bus2=17139162.1.3 LineCode=2_CLP_2PH_12KV_2 Length=0.098578 units=km
New Line.17170881$17170911 phases=3 Bus1=17170913.1.2.3 Bus2=17170883.1.2.3 LineCode=2_CLP_3PH_12KV_3 Length=0.018451 units=km
New Line.17170871$PMS1239-1 phases=2 Bus1=17139163.1.3 Bus2=17170873.1.3 LineCode=2_CLP_2PH_12KV_2 Length=0.005834 units=km
New Line.17170881$ND17189267 phases=3 Bus1=17170884.1.2.3 Bus2=17189267.1.2.3 LineCode=2_CLP_3PH_12KV_3 Length=0.161715 units=km
New Line.190581761$P5487003-2 phases=2 Bus1=108330511.1.2 Bus2=190581764.1.2 LineCode=1/0_JCN_2PH_12KV_2 Length=0.001225 units=km
New Line.17170901$ND17189267 phases=3 Bus1=17189267.1.2.3 Bus2=17170904.1.2.3 LineCode=2_CLP_3PH_12KV_3 Length=0.018756 units=km
New Line.17170941$ND17189267 phases=3 Bus1=17189267.1.2.3 Bus2=17170944.1.2.3 LineCode=2_CLP_3PH_12KV_3 Length=0.021336 units=km
New Line.PH397$P5157094-B phases=3 Bus1=17093246.1.2.3 Bus2=153940771.1.2.3 LineCode=350_CLP_3PH_12KV_3 Length=0.083209 units=km
New Line.P5471240-1$17170871 phases=2 Bus1=17170874.1.3 Bus2=17139212.1.3 LineCode=2_CLP_2PH_12KV_2 Length=0.002829 units=km
New Line.17170941$17170891 phases=3 Bus1=17170943.1.2.3 Bus2=17170893.1.2.3 LineCode=2_CLP_3PH_12KV_3 Length=0.159213 units=km
New Line.17170963$17170901 phases=3 Bus1=17170903.1.2.3 Bus2=17170965.1.2.3 LineCode=2_CLP_3PH_12KV_3 Length=0.059163 units=km
New Line.4530270E$148675442 phases=3 Bus1=138269254.1.2.3 Bus2=148675444.1.2.3 LineCode=1/0_JCN_3PH_12KV_3 Length=0.919862 units=km
New Line.17139074$P5471240-2 phases=2 Bus1=17139221.1.3 Bus2=17139076.1.3 LineCode=2_CLP_2PH_12KV_2 Length=0.084672 units=km
New Line.P5471210-2$17170891 phases=3 Bus1=17170894.1.2.3 Bus2=17139303.1.2.3 LineCode=2_CLP_3PH_12KV_3 Length=0.006359 units=km
New Line.P5471211-1$17170963 phases=3 Bus1=17170966.1.2.3 Bus2=17139366.1.2.3 LineCode=2_CLP_3PH_12KV_3 Length=0.00445 units=km
New Line.148675442$149309752 phases=3 Bus1=148675445.1.2.3 Bus2=149309755.1.2.3 LineCode=1/0_JCN_3PH_12KV_3 Length=0.034008 units=km
New Line.P5471208-1$17139074 phases=2 Bus1=17139077.1.3 Bus2=17139090.1.3 LineCode=2_CLP_2PH_12KV_2 Length=0.002497 units=km
New Line.P5471210-1$136326049 phases=3 Bus1=17139294.1.2.3 Bus2=136326052.1.2.3 LineCode=2_CLP_3PH_12KV_3 Length=0.006182 units=km
New Line.17170973$P5471211-2 phases=3 Bus1=17139375.1.2.3 Bus2=17170975.1.2.3 LineCode=2_CLP_3PH_12KV_3 Length=0.272452 units=km
New Line.148675454$149309752 phases=3 Bus1=149309754.1.2.3 Bus2=149309084.1.2.3 LineCode=1/0_JCN_3PH_12KV_3 Length=0.070675 units=km
New Line.P5471212-1$17170973 phases=3 Bus1=17170976.1.2.3 Bus2=17139438.1.2.3 LineCode=2_CLP_3PH_12KV_3 Length=0.001835 units=km
New Line.136326049$17153200 phases=3 Bus1=136326051.1.2.3 Bus2=17153202.1.2.3 LineCode=2_CLP_3PH_12KV_3 Length=0.233856 units=km
New Line.17171693$P5471208-2 phases=1 Bus1=17139099.1 Bus2=17171696.1 LineCode=2_CLP_1PH_12KV_1 Length=0.005694 units=km
New Line.ND138269383$148675454 phases=3 Bus1=149309085.1.2.3 Bus2=138269383.1.2.3 LineCode=2_JCN_3PH_12KV_3 Length=0.001003 units=km
New Line.148675454$ND147818224 phases=3 Bus1=149309085.1.2.3 Bus2=147818224.1.2.3 LineCode=1/0_JCN_3PH_12KV_3 Length=0.006175 units=km
New Line.148675454$ND149309258 phases=3 Bus1=149309085.1.2.3 Bus2=149309258.1.2.3 LineCode=2_JCN_3PH_12KV_3 Length=0.07258 units=km
New Line.ND138269383$ND147818224 phases=3 Bus1=147818224.1.2.3 Bus2=138269383.1.2.3 LineCode=1/0_JCN_3PH_12KV_3 Length=0.005172 units=km
New Line.149309092$ND149309258 phases=3 Bus1=149309258.1.2.3 Bus2=149309095.1.2.3 LineCode=1/0_JCN_3PH_12KV_3 Length=0.016563 units=km
New Line.149309182$ND149309258 phases=2 Bus1=149309258.2.3 Bus2=149309185.2.3 LineCode=2_JCN_2PH_12KV_2 Length=0.021806 units=km
New Line.17153200$P5471223-2 phases=3 Bus1=17153203.1.2.3 Bus2=17153225.1.2.3 LineCode=2_CLP_3PH_12KV_3 Length=0.005771 units=km
New Line.17171703$17171693 phases=1 Bus1=17171695.1 Bus2=17171705.1 LineCode=2_CLP_1PH_12KV_1 Length=0.088981 units=km
New Line.678620E$P5158147-2 phases=2 Bus1=17132372.1.2 Bus2=17132397.1.2 LineCode=1/0_CLP_2PH_12KV_2 Length=0.014495 units=km
New Line.P5471212-2$17171023 phases=3 Bus1=17139447.1.2.3 Bus2=17171025.1.2.3 LineCode=2_CLP_3PH_12KV_3 Length=0.077066 units=km
New Line.2294047E$P5558087-2 phases=2 Bus1=17130404.1.3 Bus2=180726642.1.3 LineCode=1/0_CLP_2PH_12KV_2 Length=0.150755 units=km
New Line.149309102$149309092 phases=3 Bus1=149309094.1.2.3 Bus2=149309104.1.2.3 LineCode=1/0_JCN_3PH_12KV_3 Length=0.333058 units=km
New Line.149309162$149309182 phases=2 Bus1=149309184.2.3 Bus2=149309164.2.3 LineCode=2_JCN_2PH_12KV_2 Length=0.103014 units=km
New Line.P5471229-1$17171703 phases=1 Bus1=17188882.1 Bus2=17153380.1 LineCode=2_CLP_1PH_12KV_1 Length=0.003593 units=km
New Line.P5471223-1$136326160 phases=2 Bus1=17153216.1.3 Bus2=136326163.1.3 LineCode=2_JCN_2PH_12KV_2 Length=0.004107 units=km
New Line.17171023$ND17189918 phases=3 Bus1=17171026.1.2.3 Bus2=17189918.1.2.3 LineCode=2_CLP_3PH_12KV_3 Length=0.011861 units=km
New Line.ND147818199$149309162 phases=2 Bus1=149309165.2.3 Bus2=147818199.2.3 LineCode=2_JCN_2PH_12KV_2 Length=0.007388 units=km
New Line.149309112$149309102 phases=3 Bus1=149309105.1.2.3 Bus2=149309115.1.2.3 LineCode=1/0_JCN_3PH_12KV_3 Length=0.038358 units=km
New Line.4202777E$179875696 phases=2 Bus1=17137998.1.3 Bus2=179875698.1.3 LineCode=1/0_CLP_2PH_12KV_2 Length=0.010761 units=km
New Line.ND180726719$P5558087-1 phases=2 Bus1=180726633.1.3 Bus2=180726719.1.3 LineCode=1/0_CLP_2PH_12KV_2 Length=0.060901 units=km
New Line.ND17189918$289518136 phases=2 Bus1=17189918.1.3 Bus2=289518139.1.3 LineCode=2_CLP_2PH_12KV_2 Length=0.031219 units=km
New Line.ND289518284$ND17189918 phases=3 Bus1=17189918.1.2.3 Bus2=289518284.1.2.3 LineCode=2_CLP_3PH_12KV_3 Length=0.020861 units=km
New Line.136326192$136326160 phases=2 Bus1=136326162.1.3 Bus2=136326194.1.3 LineCode=2_JCN_2PH_12KV_2 Length=0.128536 units=km
New Line.ND147818199$149309172 phases=2 Bus1=147818199.2.3 Bus2=149309175.2.3 LineCode=2_JCN_2PH_12KV_2 Length=0.030619 units=km
New Line.4530048E$186681737 phases=2 Bus1=150399414.2.3 Bus2=186681739.2.3 LineCode=2_JCN_2PH_12KV_2 Length=0.038323 units=km
New Line.237640326$ND180726719 phases=2 Bus1=180726719.1.3 Bus2=237640328.1.3 LineCode=1/0_CLP_2PH_12KV_2 Length=0.03655 units=km
New Line.289518148$ND289518284 phases=3 Bus1=289518284.1.2.3 Bus2=289518151.1.2.3 LineCode=2_CLP_3PH_12KV_3 Length=0.010268 units=km
New Line.289518158$ND289518284 phases=2 Bus1=289518284.1.3 Bus2=289518161.1.3 LineCode=1/0_JCN_2PH_12KV_2 Length=0.03338 units=km
New Line.ND83652355$P5471229-2 phases=1 Bus1=17153389.1 Bus2=83652355.1 LineCode=2_CLP_1PH_12KV_1 Length=0.001671 units=km
New Line.86962314$ND180726719 phases=2 Bus1=180726719.1.3 Bus2=86962316.1.3 LineCode=1/0_CLP_2PH_12KV_2 Length=0.039624 units=km
New Line.149309122$149309112 phases=3 Bus1=149309114.1.2.3 Bus2=149309124.1.2.3 LineCode=1/0_JCN_3PH_12KV_3 Length=0.366436 units=km
New Line.179875696$PME5205-1 phases=2 Bus1=179875699.1.3 Bus2=17138014.1.3 LineCode=1/0_CLP_2PH_12KV_2 Length=0.003162 units=km
New Line.ND76592155$289518136 phases=2 Bus1=289518138.1.3 Bus2=76592155.1.3 LineCode=2_CLP_2PH_12KV_2 Length=0.093752 units=km
New Line.ND17192067$17171631 phases=3 Bus1=17192067.1.2.3 Bus2=17171634.1.2.3 LineCode=350_CLP_3PH_12KV_3 Length=0.047673 units=km
New Line.17188928$P5471537-1 phases=1 Bus1=17188931.3 Bus2=17153780.3 LineCode=2_CIC_1PH_12KV_1 Length=0.007711 units=km
New Line.PME1200-1$17171631 phases=3 Bus1=17171633.1.2.3 Bus2=17138641.1.2.3 LineCode=350_CLP_3PH_12KV_3 Length=0.003902 units=km
New Line.17140895$P5473304-2 phases=2 Bus1=17140898.2.3 Bus2=17140920.2.3 LineCode=2_CLP_2PH_12KV_2 Length=0.008591 units=km
New Line.263275763$686594E phases=3 Bus1=17138242.1.2.3 Bus2=263275765.1.2.3 LineCode=1/0_CLP_3PH_12KV_3 Length=0.370201 units=km
New Line.263275763$P5472906-1 phases=3 Bus1=263275766.1.2.3 Bus2=17138197.1.2.3 LineCode=1/0_CLP_3PH_12KV_3 Length=0.011696 units=km
New Line.17170773$PME1200-2 phases=3 Bus1=17138632.1.2.3 Bus2=17170775.1.2.3 LineCode=2_CLP_3PH_12KV_3 Length=0.030787 units=km
New Line.17170773$ND17190966 phases=3 Bus1=17170776.1.2.3 Bus2=17190966.1.2.3 LineCode=2_CLP_3PH_12KV_3 Length=0.020875 units=km
New Line.ND17190966$17138776 phases=2 Bus1=17190966.1.2 Bus2=17138778.1.2 LineCode=2_CLP_2PH_12KV_2 Length=0.053837 units=km
New Line.17170783$ND17190966 phases=3 Bus1=17190966.1.2.3 Bus2=17170786.1.2.3 LineCode=2_CLP_3PH_12KV_3 Length=0.021533 units=km
New Line.ND17190966$17188994 phases=2 Bus1=17190966.1.3 Bus2=17188997.1.3 LineCode=2_CLP_2PH_12KV_2 Length=0.014312 units=km
New Line.17138776$P5471202-2 phases=2 Bus1=17138779.1.2 Bus2=17138801.1.2 LineCode=2_CLP_2PH_12KV_2 Length=0.003005 units=km
New Line.17188994$17168505 phases=2 Bus1=17188996.1.3 Bus2=17168507.1.3 LineCode=2_CLP_2PH_12KV_2 Length=0.016696 units=km
New Line.17170805$17170783 phases=3 Bus1=17170785.1.2.3 Bus2=17170807.1.2.3 LineCode=2_CLP_3PH_12KV_3 Length=0.240189 units=km
New Line.P5471203-1$17170805 phases=3 Bus1=17170808.1.2.3 Bus2=17138864.1.2.3 LineCode=2_CLP_3PH_12KV_3 Length=0.002172 units=km
New Line.17168505$P5473344-2 phases=2 Bus1=17168508.1.3 Bus2=17168530.1.3 LineCode=2_CLP_2PH_12KV_2 Length=0.001783 units=km
New Line.P5356426-1$4180044E phases=3 Bus1=17129704.1.2.3 Bus2=17129635.1.2.3 LineCode=1/0_CLP_3PH_12KV_3 Length=0.226469 units=km
New Line.17170815$P5471203-2 phases=3 Bus1=17138873.1.2.3 Bus2=17170817.1.2.3 LineCode=2_CLP_3PH_12KV_3 Length=0.314071 units=km
New Line.1875983E$ND17192208 phases=2 Bus1=17137480.1.3 Bus2=17192208.1.3 LineCode=1/0_CLP_2PH_12KV_2 Length=0.144864 units=km
New Line.P5426050-2$ND17192208 phases=2 Bus1=17192208.1.3 Bus2=17137505.1.3 LineCode=1/0_CLP_2PH_12KV_2 Length=0.198951 units=km
New Line.P5471204-1$17170815 phases=3 Bus1=17170818.1.2.3 Bus2=17138936.1.2.3 LineCode=2_CLP_3PH_12KV_3 Length=0.004626 units=km
New Line.ND17192208$240099610 phases=2 Bus1=17192208.1.3 Bus2=240099612.1.3 LineCode=1/0_CLP_2PH_12KV_2 Length=0.164468 units=km
New Line.240099610$P5453153-1 phases=2 Bus1=240099613.1.3 Bus2=17137568.1.3 LineCode=1/0_CLP_2PH_12KV_2 Length=0.001586 units=km
New Line.17170845$P5471204-2 phases=3 Bus1=17138945.1.2.3 Bus2=17170847.1.2.3 LineCode=2_CLP_3PH_12KV_3 Length=0.096042 units=km
New Line.ND17192046$17170845 phases=3 Bus1=17170848.1.2.3 Bus2=17192046.1.2.3 LineCode=2_CLP_3PH_12KV_3 Length=0.039518 units=km
...

! Switches
New Line.4332914E:RAR0306 phases=3 Bus1=17140193.1.2.3 Bus2=17140192.1.2.3 switch=y r1=0.001 x1=0.001 r0=0.001 x0=0.001 Length=0.001 units=km
New Line.4707894E:RAR5544 phases=3 Bus1=110572062.1.2.3 Bus2=110572061.1.2.3 switch=y r1=0.001 x1=0.001 r0=0.001 x0=0.001 Length=0.001 units=km
New Line.1559498E:RAR0118 phases=3 Bus1=17138256.1.2.3 Bus2=17138255.1.2.3 switch=y r1=0.001 x1=0.001 r0=0.001 x0=0.001 Length=0.001 units=km
New Line.VIENTO$CUDDEBACK_RCS7585-4$RCS7585-4 phases=3 Bus1=18897686.1.2.3 Bus2=-77777718897686.1.2.3 switch=y r1=0.001 x1=0.001 r0=0.001 x0=0.001 Length=0.001 units=km
New Line.VIENTO$CUDDEBACK_RCS0140$RCS0140 phases=3 Bus1=17171574.1.2.3 Bus2=-77777717171574.1.2.3 switch=y r1=0.001 x1=0.001 r0=0.001 x0=0.001 Length=0.001 units=km
New Line.VIENTO$LEVECHE_GS7577-2$GS7577-2 phases=3 Bus1=111224221.1.2.3 Bus2=-777777111224221.1.2.3 switch=y r1=0.001 x1=0.001 r0=0.001 x0=0.001 Length=0.001 units=km
New Line.VIENTO$LEVECHE_RCS0876$RCS0876 phases=3 Bus1=18961517.1.2.3 Bus2=-77777718961517.1.2.3 switch=y r1=0.001 x1=0.001 r0=0.001 x0=0.001 Length=0.001 units=km
New Line.VIENTO$CALIENTE_RCS5238$RCS5238 phases=3 Bus1=141543124.1.2.3 Bus2=-777777141543124.1.2.3 switch=y r1=0.001 x1=0.001 r0=0.001 x0=0.001 Length=0.001 units=km
New Line.VIENTO$CALIENTE_RCS7586$RCS7586 phases=3 Bus1=232323159.1.2.3 Bus2=-777777232323159.1.2.3 switch=y r1=0.001 x1=0.001 r0=0.001 x0=0.001 Length=0.001 units=km
New Line.5647395:PME7395-3 phases=3 Bus1=216426317.1.2.3 Bus2=216426326.1.2.3 switch=y r1=0.001 x1=0.001 r0=0.001 x0=0.001 Length=0.001 units=km enabled=false
New Line.5567577:GS7577-3 phases=3 Bus1=111224208.1.2.3 Bus2=111224237.1.2.3 switch=y r1=0.001 x1=0.001 r0=0.001 x0=0.001 Length=0.001 units=km enabled=false
New Line.5613160:GS3160-3 phases=3 Bus1=135437350.1.2.3 Bus2=135437379.1.2.3 switch=y r1=0.001 x1=0.001 r0=0.001 x0=0.001 Length=0.001 units=km enabled=false
New Line.5613160:GS3160-2 phases=3 Bus1=135437344.1.2.3 Bus2=135437363.1.2.3 switch=y r1=0.001 x1=0.001 r0=0.001 x0=0.001 Length=0.001 units=km enabled=false
New Line.5614164:GS3164-3 phases=3 Bus1=245210183.1.2.3 Bus2=245210215.1.2.3 switch=y r1=0.001 x1=0.001 r0=0.001 x0=0.001 Length=0.001 units=km enabled=false
New Line.5414536:P5414536-B phases=3 Bus1=153941249.1.2.3 Bus2=153941266.1.2.3 switch=y r1=0.001 x1=0.001 r0=0.001 x0=0.001 Length=0.001 units=km enabled=false
New Line.18961319 phases=3 Bus1=18961321.1.2.3 Bus2=18961322.1.2.3 switch=y r1=0.001 x1=0.001 r0=0.001 x0=0.001 Length=0.001 units=km
New Line.18958958$GS8591-2 phases=3 Bus1=18958932.1.2.3 Bus2=18958933.1.2.3 switch=y r1=0.001 x1=0.001 r0=0.001 x0=0.001 Length=0.001 units=km
New Line.GS8591-3$18958974 phases=3 Bus1=18958939.1.2.3 Bus2=18958945.1.2.3 switch=y r1=0.001 x1=0.001 r0=0.001 x0=0.001 Length=0.001 units=km
New Line.18976032 phases=3 Bus1=18976035.1.2.3 Bus2=18976034.1.2.3 switch=y r1=0.001 x1=0.001 r0=0.001 x0=0.001 Length=0.001 units=km
New Line.106176910 phases=3 Bus1=106176912.1.2.3 Bus2=106176913.1.2.3 switch=y r1=0.001 x1=0.001 r0=0.001 x0=0.001 Length=0.001 units=km
New Line.18976048 phases=3 Bus1=18976051.1.2.3 Bus2=18976050.1.2.3 switch=y r1=0.001 x1=0.001 r0=0.001 x0=0.001 Length=0.001 units=km
New Line.18976064 phases=3 Bus1=18976067.1.2.3 Bus2=18976066.1.2.3 switch=y r1=0.001 x1=0.001 r0=0.001 x0=0.001 Length=0.001 units=km
New Line.182667135 phases=3 Bus1=182667137.1.2.3 Bus2=182667138.1.2.3 switch=y r1=0.001 x1=0.001 r0=0.001 x0=0.001 Length=0.001 units=km
New Line.223349878 phases=2 Bus1=223349880.1.2 Bus2=223349881.1.2 switch=y r1=0.001 x1=0.001 r0=0.001 x0=0.001 Length=0.001 units=km
New Line.182416760 phases=3 Bus1=182416762.1.2.3 Bus2=182416763.1.2.3 switch=y r1=0.001 x1=0.001 r0=0.001 x0=0.001 Length=0.001 units=km
New Line.RCS7585-2$18897702 phases=3 Bus1=18897668.1.2.3 Bus2=18897669.1.2.3 switch=y r1=0.001 x1=0.001 r0=0.001 x0=0.001 Length=0.001 units=km
New Line.106177006 phases=3 Bus1=106177009.1.2.3 Bus2=106177008.1.2.3 switch=y r1=0.001 x1=0.001 r0=0.001 x0=0.001 Length=0.001 units=km
New Line.216426503 phases=3 Bus1=216426506.1.2.3 Bus2=216426505.1.2.3 switch=y r1=0.001 x1=0.001 r0=0.001 x0=0.001 Length=0.001 units=km
New Line.PME6719-2$PME6719-1 phases=3 Bus1=223349803.1.2.3 Bus2=223349802.1.2.3 switch=y r1=0.001 x1=0.001 r0=0.001 x0=0.001 Length=0.001 units=km
New Line.106177031 phases=3 Bus1=106177033.1.2.3 Bus2=106177034.1.2.3 switch=y r1=0.001 x1=0.001 r0=0.001 x0=0.001 Length=0.001 units=km
New Line.216426467 phases=3 Bus1=216426469.1.2.3 Bus2=216426470.1.2.3 switch=y r1=0.001 x1=0.001 r0=0.001 x0=0.001 Length=0.001 units=km
New Line.223349890 phases=2 Bus1=223349893.1.2 Bus2=223349892.1.2 switch=y r1=0.001 x1=0.001 r0=0.001 x0=0.001 Length=0.001 units=km
New Line.PME7395-2$PME7395-4 phases=3 Bus1=216426318.1.2.3 Bus2=216426317.1.2.3 switch=y r1=0.001 x1=0.001 r0=0.001 x0=0.001 Length=0.001 units=km
New Line.182416691 phases=3 Bus1=182416693.1.2.3 Bus2=182416694.1.2.3 switch=y r1=0.001 x1=0.001 r0=0.001 x0=0.001 Length=0.001 units=km
New Line.18959304$18959312 phases=3 Bus1=18959316.1.2.3 Bus2=18959308.1.2.3 switch=y r1=0.001 x1=0.001 r0=0.001 x0=0.001 Length=0.001 units=km
New Line.191354587 phases=3 Bus1=191354589.1.2.3 Bus2=191354590.1.2.3 switch=y r1=0.001 x1=0.001 r0=0.001 x0=0.001 Length=0.001 units=km
New Line.18959320$18959304 phases=3 Bus1=18959308.1.2.3 Bus2=18959324.1.2.3 switch=y r1=0.001 x1=0.001 r0=0.001 x0=0.001 Length=0.001 units=km
New Line.195188339 phases=3 Bus1=195188342.1.2.3 Bus2=195188341.1.2.3 switch=y r1=0.001 x1=0.001 r0=0.001 x0=0.001 Length=0.001 units=km
New Line.216426556 phases=3 Bus1=216426558.1.2.3 Bus2=216426559.1.2.3 switch=y r1=0.001 x1=0.001 r0=0.001 x0=0.001 Length=0.001 units=km
New Line.109192615 phases=3 Bus1=109192617.1.2.3 Bus2=109192618.1.2.3 switch=y r1=0.001 x1=0.001 r0=0.001 x0=0.001 Length=0.001 units=km
New Line.18959296$18959320 phases=3 Bus1=18959324.1.2.3 Bus2=18959300.1.2.3 switch=y r1=0.001 x1=0.001 r0=0.001 x0=0.001 Length=0.001 units=km
New Line.216426455 phases=3 Bus1=216426458.1.2.3 Bus2=216426457.1.2.3 switch=y r1=0.001 x1=0.001 r0=0.001 x0=0.001 Length=0.001 units=km
New Line.195188351 phases=3 Bus1=195188353.1.2.3 Bus2=195188354.1.2.3 switch=y r1=0.001 x1=0.001 r0=0.001 x0=0.001 Length=0.001 units=km
New Line.216426221 phases=3 Bus1=216426223.1.2.3 Bus2=216426224.1.2.3 switch=y r1=0.001 x1=0.001 r0=0.001 x0=0.001 Length=0.001 units=km
New Line.263275825 phases=1 Bus1=263275827.2 Bus2=263275828.2 switch=y r1=0.001 x1=0.001 r0=0.001 x0=0.001 Length=0.001 units=km
New Line.109192642 phases=3 Bus1=109192645.1.2.3 Bus2=109192644.1.2.3 switch=y r1=0.001 x1=0.001 r0=0.001 x0=0.001 Length=0.001 units=km
New Line.109192667 phases=3 Bus1=109192670.1.2.3 Bus2=109192669.1.2.3 switch=y r1=0.001 x1=0.001 r0=0.001 x0=0.001 Length=0.001 units=km
New Line.263275731 phases=3 Bus1=263275733.1.2.3 Bus2=263275734.1.2.3 switch=y r1=0.001 x1=0.001 r0=0.001 x0=0.001 Length=0.001 units=km
New Line.216372540 phases=2 Bus1=216372543.1.2 Bus2=216372542.1.2 switch=y r1=0.001 x1=0.001 r0=0.001 x0=0.001 Length=0.001 units=km
New Line.109192692 phases=3 Bus1=109192694.1.2.3 Bus2=109192695.1.2.3 switch=y r1=0.001 x1=0.001 r0=0.001 x0=0.001 Length=0.001 units=km
New Line.182416723 phases=3 Bus1=182416725.1.2.3 Bus2=182416726.1.2.3 switch=y r1=0.001 x1=0.001 r0=0.001 x0=0.001 Length=0.001 units=km
New Line.216426209 phases=3 Bus1=216426212.1.2.3 Bus2=216426211.1.2.3 switch=y r1=0.001 x1=0.001 r0=0.001 x0=0.001 Length=0.001 units=km
New Line.225218174 phases=3 Bus1=225218177.1.2.3 Bus2=225218176.1.2.3 switch=y r1=0.001 x1=0.001 r0=0.001 x0=0.001 Length=0.001 units=km
New Line.94981191 phases=2 Bus1=94981193.1.3 Bus2=94981194.1.3 switch=y r1=0.001 x1=0.001 r0=0.001 x0=0.001 Length=0.001 units=km
New Line.216372611 phases=2 Bus1=216372613.1.2 Bus2=216372614.1.2 switch=y r1=0.001 x1=0.001 r0=0.001 x0=0.001 Length=0.001 units=km
New Line.225218245 phases=3 Bus1=225218247.1.2.3 Bus2=225218248.1.2.3 switch=y r1=0.001 x1=0.001 r0=0.001 x0=0.001 Length=0.001 units=km
New Line.70697795 phases=3 Bus1=70697797.1.2.3 Bus2=70697798.1.2.3 switch=y r1=0.001 x1=0.001 r0=0.001 x0=0.001 Length=0.001 units=km
New Line.101982386 phases=3 Bus1=101982389.1.2.3 Bus2=101982388.1.2.3 switch=y r1=0.001 x1=0.001 r0=0.001 x0=0.001 Length=0.001 units=km
New Line.109192722 phases=3 Bus1=109192725.1.2.3 Bus2=109192724.1.2.3 switch=y r1=0.001 x1=0.001 r0=0.001 x0=0.001 Length=0.001 units=km
New Line.255697014 phases=2 Bus1=255697017.2.3 Bus2=255697016.2.3 switch=y r1=0.001 x1=0.001 r0=0.001 x0=0.001 Length=0.001 units=km
New Line.69887295 phases=3 Bus1=69887298.1.2.3 Bus2=69887297.1.2.3 switch=y r1=0.001 x1=0.001 r0=0.001 x0=0.001 Length=0.001 units=km
New Line.70697820 phases=3 Bus1=70697823.1.2.3 Bus2=70697822.1.2.3 switch=y r1=0.001 x1=0.001 r0=0.001 x0=0.001 Length=0.001 units=km
New Line.PDRAR5544-B$RAR5544 phases=3 Bus1=110572061.1.2.3 Bus2=110572068.1.2.3 switch=y r1=0.001 x1=0.001 r0=0.001 x0=0.001 Length=0.001 units=km
New Line.191183304 phases=3 Bus1=191183306.1.2.3 Bus2=191183307.1.2.3 switch=y r1=0.001 x1=0.001 r0=0.001 x0=0.001 Length=0.001 units=km
New Line.194634323 phases=2 Bus1=194634325.1.2 Bus2=194634326.1.2 switch=y r1=0.001 x1=0.001 r0=0.001 x0=0.001 Length=0.001 units=km
New Line.255697026 phases=2 Bus1=255697028.2.3 Bus2=255697029.2.3 switch=y r1=0.001 x1=0.001 r0=0.001 x0=0.001 Length=0.001 units=km
New Line.94981218 phases=2 Bus1=94981221.1.3 Bus2=94981220.1.3 switch=y r1=0.001 x1=0.001 r0=0.001 x0=0.001 Length=0.001 units=km
New Line.255697036 phases=2 Bus1=255697039.2.3 Bus2=255697038.2.3 switch=y r1=0.001 x1=0.001 r0=0.001 x0=0.001 Length=0.001 units=km
New Line.191183292 phases=3 Bus1=191183295.1.2.3 Bus2=191183294.1.2.3 switch=y r1=0.001 x1=0.001 r0=0.001 x0=0.001 Length=0.001 units=km
New Line.94981243 phases=2 Bus1=94981245.1.3 Bus2=94981246.1.3 switch=y r1=0.001 x1=0.001 r0=0.001 x0=0.001 Length=0.001 units=km
New Line.255697046 phases=2 Bus1=255697048.2.3 Bus2=255697049.2.3 switch=y r1=0.001 x1=0.001 r0=0.001 x0=0.001 Length=0.001 units=km
New Line.86962314 phases=2 Bus1=86962316.1.3 Bus2=86962317.1.3 switch=y r1=0.001 x1=0.001 r0=0.001 x0=0.001 Length=0.001 units=km
New Line.149309122 phases=3 Bus1=149309124.1.2.3 Bus2=149309125.1.2.3 switch=y r1=0.001 x1=0.001 r0=0.001 x0=0.001 Length=0.001 units=km
New Line.83652390 phases=1 Bus1=83652393.1 Bus2=83652392.1 switch=y r1=0.001 x1=0.001 r0=0.001 x0=0.001 Length=0.001 units=km
New Line.83652415 phases=1 Bus1=83652418.1 Bus2=83652417.1 switch=y r1=0.001 x1=0.001 r0=0.001 x0=0.001 Length=0.001 units=km
New Line.149309567 phases=2 Bus1=149309569.2.3 Bus2=149309570.2.3 switch=y r1=0.001 x1=0.001 r0=0.001 x0=0.001 Length=0.001 units=km
New Line.17139576 phases=3 Bus1=17139578.1.2.3 Bus2=17139579.1.2.3 switch=y r1=0.001 x1=0.001 r0=0.001 x0=0.001 Length=0.001 units=km
New Line.17171621 phases=2 Bus1=17171623.1.3 Bus2=17171624.1.3 switch=y r1=0.001 x1=0.001 r0=0.001 x0=0.001 Length=0.001 units=km
New Line.76592192 phases=2 Bus1=76592194.1.3 Bus2=76592195.1.3 switch=y r1=0.001 x1=0.001 r0=0.001 x0=0.001 Length=0.001 units=km
New Line.136326219 phases=2 Bus1=136326222.1.3 Bus2=136326221.1.3 switch=y r1=0.001 x1=0.001 r0=0.001 x0=0.001 Length=0.001 units=km
New Line.149309132 phases=3 Bus1=149309135.1.2.3 Bus2=149309134.1.2.3 switch=y r1=0.001 x1=0.001 r0=0.001 x0=0.001 Length=0.001 units=km
New Line.17188889 phases=1 Bus1=17188891.1 Bus2=17188892.1 switch=y r1=0.001 x1=0.001 r0=0.001 x0=0.001 Length=0.001 units=km
New Line.179875684 phases=2 Bus1=179875687.1.3 Bus2=179875686.1.3 switch=y r1=0.001 x1=0.001 r0=0.001 x0=0.001 Length=0.001 units=km
New Line.83652363 phases=1 Bus1=83652365.1 Bus2=83652366.1 switch=y r1=0.001 x1=0.001 r0=0.001 x0=0.001 Length=0.001 units=km
New Line.111224227$111224219 phases=3 Bus1=111224201.1.2.3 Bus2=111224202.1.2.3 switch=y r1=0.001 x1=0.001 r0=0.001 x0=0.001 Length=0.001 units=km
New Line.111224219$111224235 phases=3 Bus1=111224202.1.2.3 Bus2=111224208.1.2.3 switch=y r1=0.001 x1=0.001 r0=0.001 x0=0.001 Length=0.001 units=km
New Line.111224235$111224243 phases=3 Bus1=111224208.1.2.3 Bus2=111224214.1.2.3 switch=y r1=0.001 x1=0.001 r0=0.001 x0=0.001 Length=0.001 units=km
New Line.135437377$135437385 phases=3 Bus1=135437356.1.2.3 Bus2=135437350.1.2.3 switch=y r1=0.001 x1=0.001 r0=0.001 x0=0.001 Length=0.001 units=km
New Line.GS3160-2$135437377 phases=3 Bus1=135437350.1.2.3 Bus2=135437344.1.2.3 switch=y r1=0.001 x1=0.001 r0=0.001 x0=0.001 Length=0.001 units=km
New Line.135437369$GS3160-2 phases=3 Bus1=135437344.1.2.3 Bus2=135437343.1.2.3 switch=y r1=0.001 x1=0.001 r0=0.001 x0=0.001 Length=0.001 units=km
New Line.185690107 phases=3 Bus1=185690109.1.2.3 Bus2=185690110.1.2.3 switch=y r1=0.001 x1=0.001 r0=0.001 x0=0.001 Length=0.001 units=km
New Line.GS3164-3$245210221 phases=3 Bus1=245210189.1.2.3 Bus2=245210183.1.2.3 switch=y r1=0.001 x1=0.001 r0=0.001 x0=0.001 Length=0.001 units=km
New Line.245210194$GS3164-2 phases=3 Bus1=245210177.1.2.3 Bus2=245210176.1.2.3 switch=y r1=0.001 x1=0.001 r0=0.001 x0=0.001 Length=0.001 units=km
New Line.149309579 phases=2 Bus1=149309582.2.3 Bus2=149309581.2.3 switch=y r1=0.001 x1=0.001 r0=0.001 x0=0.001 Length=0.001 units=km
New Line.136326244 phases=2 Bus1=136326246.1.3 Bus2=136326247.1.3 switch=y r1=0.001 x1=0.001 r0=0.001 x0=0.001 Length=0.001 units=km
New Line.149309142 phases=3 Bus1=149309144.1.2.3 Bus2=149309145.1.2.3 switch=y r1=0.001 x1=0.001 r0=0.001 x0=0.001 Length=0.001 units=km
New Line.166218768 phases=2 Bus1=166218771.1.3 Bus2=166218770.1.3 switch=y r1=0.001 x1=0.001 r0=0.001 x0=0.001 Length=0.001 units=km
New Line.17171601 phases=2 Bus1=17171603.1.3 Bus2=17171604.1.3 switch=y r1=0.001 x1=0.001 r0=0.001 x0=0.001 Length=0.001 units=km
New Line.17171611 phases=2 Bus1=17171613.1.3 Bus2=17171614.1.3 switch=y r1=0.001 x1=0.001 r0=0.001 x0=0.001 Length=0.001 units=km
New Line.138269457 phases=1 Bus1=138269460.1 Bus2=138269459.1 switch=y r1=0.001 x1=0.001 r0=0.001 x0=0.001 Length=0.001 units=km
New Line.138269467 phases=1 Bus1=138269470.1 Bus2=138269469.1 switch=y r1=0.001 x1=0.001 r0=0.001 x0=0.001 Length=0.001 units=km
New Line.149309589 phases=2 Bus1=149309591.2.3 Bus2=149309592.2.3 switch=y r1=0.001 x1=0.001 r0=0.001 x0=0.001 Length=0.001 units=km
New Line.166218780 phases=2 Bus1=166218782.1.3 Bus2=166218783.1.3 switch=y r1=0.001 x1=0.001 r0=0.001 x0=0.001 Length=0.001 units=km
New Line.17170983 phases=3 Bus1=17170986.1.2.3 Bus2=17170985.1.2.3 switch=y r1=0.001 x1=0.001 r0=0.001 x0=0.001 Length=0.001 units=km
New Line.138269445 phases=1 Bus1=138269447.1 Bus2=138269448.1 switch=y r1=0.001 x1=0.001 r0=0.001 x0=0.001 Length=0.001 units=km
New Line.138269477 phases=1 Bus1=138269479.1 Bus2=138269480.1 switch=y r1=0.001 x1=0.001 r0=0.001 x0=0.001 Length=0.001 units=km
New Line.17170727 phases=2 Bus1=17170729.1.3 Bus2=17170730.1.3 switch=y r1=0.001 x1=0.001 r0=0.001 x0=0.001 Length=0.001 units=km
New Line.203595847 phases=3 Bus1=203595849.1.2.3 Bus2=203595850.1.2.3 switch=y r1=0.001 x1=0.001 r0=0.001 x0=0.001 Length=0.001 units=km
New Line.273382527 phases=3 Bus1=273382530.1.2.3 Bus2=273382529.1.2.3 switch=y r1=0.001 x1=0.001 r0=0.001 x0=0.001 Length=0.001 units=km
New Line.17170993 phases=3 Bus1=17170995.1.2.3 Bus2=17170996.1.2.3 switch=y r1=0.001 x1=0.001 r0=0.001 x0=0.001 Length=0.001 units=km
New Line.17171063 phases=2 Bus1=17171066.2.3 Bus2=17171065.2.3 switch=y r1=0.001 x1=0.001 r0=0.001 x0=0.001 Length=0.001 units=km
New Line.17171073 phases=3 Bus1=17171076.1.2.3 Bus2=17171075.1.2.3 switch=y r1=0.001 x1=0.001 r0=0.001 x0=0.001 Length=0.001 units=km
New Line.243273223 phases=2 Bus1=243273225.2.3 Bus2=243273226.2.3 switch=y r1=0.001 x1=0.001 r0=0.001 x0=0.001 Length=0.001 units=km
New Line.17188899 phases=1 Bus1=17188902.1 Bus2=17188901.1 switch=y r1=0.001 x1=0.001 r0=0.001 x0=0.001 Length=0.001 units=km
New Line.263275798 phases=2 Bus1=263275801.1.3 Bus2=263275800.1.3 switch=y r1=0.001 x1=0.001 r0=0.001 x0=0.001 Length=0.001 units=km
New Line.17139658 phases=2 Bus1=17139660.2.3 Bus2=17139661.2.3 switch=y r1=0.001 x1=0.001 r0=0.001 x0=0.001 Length=0.001 units=km
New Line.17171003 phases=3 Bus1=17171005.1.2.3 Bus2=17171006.1.2.3 switch=y r1=0.001 x1=0.001 r0=0.001 x0=0.001 Length=0.001 units=km
New Line.17170737 phases=2 Bus1=17170739.1.3 Bus2=17170740.1.3 switch=y r1=0.001 x1=0.001 r0=0.001 x0=0.001 Length=0.001 units=km
New Line.17171663 phases=1 Bus1=17171665.1 Bus2=17171666.1 switch=y r1=0.001 x1=0.001 r0=0.001 x0=0.001 Length=0.001 units=km
New Line.120768996 phases=2 Bus1=120769011.1.3 Bus2=120768999.1.3 switch=y r1=0.001 x1=0.001 r0=0.001 x0=0.001 Length=0.001 units=km
New Line.120768926 phases=3 Bus1=120768924.1.2.3 Bus2=120768928.1.2.3 switch=y r1=0.001 x1=0.001 r0=0.001 x0=0.001 Length=0.001 units=km
New Line.120768943 phases=3 Bus1=120768946.1.2.3 Bus2=120768945.1.2.3 switch=y r1=0.001 x1=0.001 r0=0.001 x0=0.001 Length=0.001 units=km
New Line.17153692 phases=1 Bus1=17153694.1 Bus2=17153695.1 switch=y r1=0.001 x1=0.001 r0=0.001 x0=0.001 Length=0.001 units=km
New Line.17171673 phases=1 Bus1=17171676.1 Bus2=17171675.1 switch=y r1=0.001 x1=0.001 r0=0.001 x0=0.001 Length=0.001 units=km
New Line.98815035 phases=2 Bus1=98815037.2.3 Bus2=98815038.2.3 switch=y r1=0.001 x1=0.001 r0=0.001 x0=0.001 Length=0.001 units=km
New Line.98815060 phases=2 Bus1=98815063.2.3 Bus2=98815062.2.3 switch=y r1=0.001 x1=0.001 r0=0.001 x0=0.001 Length=0.001 units=km
New Line.224928337$RCS7584-2 phases=3 Bus1=224928311.1.2.3 Bus2=224928312.1.2.3 switch=y r1=0.001 x1=0.001 r0=0.001 x0=0.001 Length=0.001 units=km
New Line.RCS7584-2$RCS7584-3 phases=3 Bus1=224928312.1.2.3 Bus2=224928318.1.2.3 switch=y r1=0.001 x1=0.001 r0=0.001 x0=0.001 Length=0.001 units=km
New Line.98814985 phases=2 Bus1=98814987.2.3 Bus2=98814988.2.3 switch=y r1=0.001 x1=0.001 r0=0.001 x0=0.001 Length=0.001 units=km
New Line.RCS7584-3$224928353 phases=3 Bus1=224928318.1.2.3 Bus2=224928324.1.2.3 switch=y r1=0.001 x1=0.001 r0=0.001 x0=0.001 Length=0.001 units=km
New Line.17171683 phases=1 Bus1=17171686.1 Bus2=17171685.1 switch=y r1=0.001 x1=0.001 r0=0.001 x0=0.001 Length=0.001 units=km
New Line.17171033 phases=2 Bus1=17171035.2.3 Bus2=17171036.2.3 switch=y r1=0.001 x1=0.001 r0=0.001 x0=0.001 Length=0.001 units=km
New Line.120769027 phases=3 Bus1=120769023.1.2.3 Bus2=120769030.1.2.3 switch=y r1=0.001 x1=0.001 r0=0.001 x0=0.001 Length=0.001 units=km
New Line.166218320 phases=1 Bus1=166218322.1 Bus2=166218323.1 switch=y r1=0.001 x1=0.001 r0=0.001 x0=0.001 Length=0.001 units=km
New Line.17153446 phases=1 Bus1=17153448.1 Bus2=17153449.1 switch=y r1=0.001 x1=0.001 r0=0.001 x0=0.001 Length=0.001 units=km
New Line.17170747 phases=2 Bus1=17170749.1.3 Bus2=17170750.1.3 switch=y r1=0.001 x1=0.001 r0=0.001 x0=0.001 Length=0.001 units=km
New Line.17171013 phases=3 Bus1=17171015.1.2.3 Bus2=17171016.1.2.3 switch=y r1=0.001 x1=0.001 r0=0.001 x0=0.001 Length=0.001 units=km
New Line.182667081 phases=3 Bus1=182667083.1.2.3 Bus2=182667084.1.2.3 switch=y r1=0.001 x1=0.001 r0=0.001 x0=0.001 Length=0.001 units=km
New Line.98815010 phases=2 Bus1=98815013.2.3 Bus2=98815012.2.3 switch=y r1=0.001 x1=0.001 r0=0.001 x0=0.001 Length=0.001 units=km
New Line.90478983 phases=1 Bus1=90478986.1 Bus2=90478985.1 switch=y r1=0.001 x1=0.001 r0=0.001 x0=0.001 Length=0.001 units=km
New Line.98814958 phases=2 Bus1=98814960.2.3 Bus2=98814961.2.3 switch=y r1=0.001 x1=0.001 r0=0.001 x0=0.001 Length=0.001 units=km
New Line.94602726 phases=2 Bus1=94602729.2.3 Bus2=94602728.2.3 switch=y r1=0.001 x1=0.001 r0=0.001 x0=0.001 Length=0.001 units=km
New Line.17139884 phases=3 Bus1=17139886.1.2.3 Bus2=17139887.1.2.3 switch=y r1=0.001 x1=0.001 r0=0.001 x0=0.001 Length=0.001 units=km
New Line.17153456 phases=1 Bus1=17153459.1 Bus2=17153458.1 switch=y r1=0.001 x1=0.001 r0=0.001 x0=0.001 Length=0.001 units=km
New Line.218365011 phases=1 Bus1=218365013.1 Bus2=218365014.1 switch=y r1=0.001 x1=0.001 r0=0.001 x0=0.001 Length=0.001 units=km
New Line.94602753 phases=2 Bus1=94602755.2.3 Bus2=94602756.2.3 switch=y r1=0.001 x1=0.001 r0=0.001 x0=0.001 Length=0.001 units=km
New Line.17153282 phases=1 Bus1=17153284.1 Bus2=17153307.1 switch=y r1=0.001 x1=0.001 r0=0.001 x0=0.001 Length=0.001 units=km
New Line.218365023 phases=1 Bus1=218365026.1 Bus2=218365025.1 switch=y r1=0.001 x1=0.001 r0=0.001 x0=0.001 Length=0.001 units=km
New Line.17171043 phases=2 Bus1=17171045.2.3 Bus2=17171046.2.3 switch=y r1=0.001 x1=0.001 r0=0.001 x0=0.001 Length=0.001 units=km
New Line.90479010 phases=1 Bus1=90479012.1 Bus2=90479013.1 switch=y r1=0.001 x1=0.001 r0=0.001 x0=0.001 Length=0.001 units=km
New Line.17171053 phases=2 Bus1=17171055.2.3 Bus2=17171056.2.3 switch=y r1=0.001 x1=0.001 r0=0.001 x0=0.001 Length=0.001 units=km
New Line.134979839 phases=2 Bus1=134979841.1.2 Bus2=134979842.1.2 switch=y r1=0.001 x1=0.001 r0=0.001 x0=0.001 Length=0.001 units=km
New Line.240099649 phases=2 Bus1=240099651.2.3 Bus2=240099652.2.3 switch=y r1=0.001 x1=0.001 r0=0.001 x0=0.001 Length=0.001 units=km
New Line.190581848 phases=2 Bus1=190581850.1.2 Bus2=190581851.1.2 switch=y r1=0.001 x1=0.001 r0=0.001 x0=0.001 Length=0.001 units=km
New Line.268835706 phases=2 Bus1=268835709.1.2 Bus2=268835708.1.2 switch=y r1=0.001 x1=0.001 r0=0.001 x0=0.001 Length=0.001 units=km
New Line.268835718 phases=2 Bus1=268835720.1.2 Bus2=268835721.1.2 switch=y r1=0.001 x1=0.001 r0=0.001 x0=0.001 Length=0.001 units=km
New Line.99171943 phases=2 Bus1=99171946.1.3 Bus2=99171945.1.3 switch=y r1=0.001 x1=0.001 r0=0.001 x0=0.001 Length=0.001 units=km
New Line.99171970 phases=2 Bus1=99171972.1.3 Bus2=99171973.1.3 switch=y r1=0.001 x1=0.001 r0=0.001 x0=0.001 Length=0.001 units=km
New Line.101982413 phases=3 Bus1=101982415.1.2.3 Bus2=101982416.1.2.3 switch=y r1=0.001 x1=0.001 r0=0.001 x0=0.001 Length=0.001 units=km
New Line.109192747 phases=3 Bus1=109192749.1.2.3 Bus2=109192750.1.2.3 switch=y r1=0.001 x1=0.001 r0=0.001 x0=0.001 Length=0.001 units=km
New Line.4573876E:18897188 phases=2 Bus1=18897190.1.3 Bus2=18897191.1.3 switch=y r1=0.001 x1=0.001 r0=0.001 x0=0.001 Length=0.001 units=km
New Line.1309674E:18897313 phases=3 Bus1=18897315.1.2.3 Bus2=18897316.1.2.3 switch=y r1=0.001 x1=0.001 r0=0.001 x0=0.001 Length=0.001 units=km
New Line.4335095E:18960932 phases=2 Bus1=18960934.1.3 Bus2=18960935.1.3 switch=y r1=0.001 x1=0.001 r0=0.001 x0=0.001 Length=0.001 units=km
New Line.4573877E:18897163 phases=2 Bus1=18897165.1.3 Bus2=18897166.1.3 switch=y r1=0.001 x1=0.001 r0=0.001 x0=0.001 Length=0.001 units=km
New Line.4342425E:18960639 phases=3 Bus1=18960641.1.2.3 Bus2=18960642.1.2.3 switch=y r1=0.001 x1=0.001 r0=0.001 x0=0.001 Length=0.001 units=km
New Line.4342426E:18921412 phases=3 Bus1=18921414.1.2.3 Bus2=18921415.1.2.3 switch=y r1=0.001 x1=0.001 r0=0.001 x0=0.001 Length=0.001 units=km
New Line.4332734E:279699441 phases=3 Bus1=279699443.1.2.3 Bus2=279699444.1.2.3 switch=y r1=0.001 x1=0.001 r0=0.001 x0=0.001 Length=0.001 units=km
New Line.4332736E:18921354 phases=3 Bus1=18921356.1.2.3 Bus2=18921357.1.2.3 switch=y r1=0.001 x1=0.001 r0=0.001 x0=0.001 Length=0.001 units=km
New Line.4342427E:18921383 phases=3 Bus1=18921385.1.2.3 Bus2=18921386.1.2.3 switch=y r1=0.001 x1=0.001 r0=0.001 x0=0.001 Length=0.001 units=km
New Line.4983493E:237659065 phases=2 Bus1=237659067.1.2 Bus2=237659068.1.2 switch=y r1=0.001 x1=0.001 r0=0.001 x0=0.001 Length=0.001 units=km
New Line.1769533E:17110159 phases=3 Bus1=17110161.1.2.3 Bus2=17110162.1.2.3 switch=y r1=0.001 x1=0.001 r0=0.001 x0=0.001 Length=0.001 units=km
New Line.2015422E:17110927 phases=2 Bus1=17110929.1.2 Bus2=17110930.1.2 switch=y r1=0.001 x1=0.001 r0=0.001 x0=0.001 Length=0.001 units=km
New Line.1421459E:18919860 phases=2 Bus1=18919862.1.2 Bus2=18919863.1.2 switch=y r1=0.001 x1=0.001 r0=0.001 x0=0.001 Length=0.001 units=km
New Line.1421458E:18919885 phases=2 Bus1=18919887.1.2 Bus2=18919888.1.2 switch=y r1=0.001 x1=0.001 r0=0.001 x0=0.001 Length=0.001 units=km
New Line.1661051E:110791651 phases=2 Bus1=110791653.1.2 Bus2=110791654.1.2 switch=y r1=0.001 x1=0.001 r0=0.001 x0=0.001 Length=0.001 units=km
New Line.646140E:18919810 phases=2 Bus1=18919812.1.3 Bus2=18919813.1.3 switch=y r1=0.001 x1=0.001 r0=0.001 x0=0.001 Length=0.001 units=km
New Line.20459T:17168895 phases=2 Bus1=17168897.1.2 Bus2=17168898.1.2 switch=y r1=0.001 x1=0.001 r0=0.001 x0=0.001 Length=0.001 units=km
New Line.2015427E:84636499 phases=3 Bus1=84636501.1.2.3 Bus2=84636502.1.2.3 switch=y r1=0.001 x1=0.001 r0=0.001 x0=0.001 Length=0.001 units=km
New Line.4530111E:99172059 phases=2 Bus1=99172061.1.2 Bus2=99172062.1.2 switch=y r1=0.001 x1=0.001 r0=0.001 x0=0.001 Length=0.001 units=km
New Line.4180149E:17110109 phases=2 Bus1=17110111.1.3 Bus2=17110112.1.3 switch=y r1=0.001 x1=0.001 r0=0.001 x0=0.001 Length=0.001 units=km
New Line.2226831E:17110134 phases=2 Bus1=17110136.1.3 Bus2=17110137.1.3 switch=y r1=0.001 x1=0.001 r0=0.001 x0=0.001 Length=0.001 units=km
New Line.4983494E:237659027 phases=2 Bus1=237659029.1.2 Bus2=237659030.1.2 switch=y r1=0.001 x1=0.001 r0=0.001 x0=0.001 Length=0.001 units=km
New Line.4180085E:237673972 phases=2 Bus1=237673974.1.2 Bus2=237673975.1.2 switch=y r1=0.001 x1=0.001 r0=0.001 x0=0.001 Length=0.001 units=km
New Line.4121625E:17110188 phases=2 Bus1=17110190.1.2 Bus2=17110191.1.2 switch=y r1=0.001 x1=0.001 r0=0.001 x0=0.001 Length=0.001 units=km
New Line.4137543E:17110902 phases=2 Bus1=17110904.1.3 Bus2=17110905.1.3 switch=y r1=0.001 x1=0.001 r0=0.001 x0=0.001 Length=0.001 units=km
New Line.2175921E:17111077 phases=2 Bus1=17111079.2.3 Bus2=17111080.2.3 switch=y r1=0.001 x1=0.001 r0=0.001 x0=0.001 Length=0.001 units=km
New Line.646139E:18919785 phases=2 Bus1=18919787.1.3 Bus2=18919788.1.3 switch=y r1=0.001 x1=0.001 r0=0.001 x0=0.001 Length=0.001 units=km
New Line.1661053E:18919910 phases=2 Bus1=18919912.1.2 Bus2=18919913.1.2 switch=y r1=0.001 x1=0.001 r0=0.001 x0=0.001 Length=0.001 units=km
New Line.646137E:18919760 phases=2 Bus1=18919762.1.3 Bus2=18919763.1.3 switch=y r1=0.001 x1=0.001 r0=0.001 x0=0.001 Length=0.001 units=km
New Line.1661055E:298226930 phases=2 Bus1=298226932.1.2 Bus2=298226933.1.2 switch=y r1=0.001 x1=0.001 r0=0.001 x0=0.001 Length=0.001 units=km
New Line.1661058E:110791620 phases=2 Bus1=110791622.1.2 Bus2=110791623.1.2 switch=y r1=0.001 x1=0.001 r0=0.001 x0=0.001 Length=0.001 units=km
New Line.4664614E:18960319 phases=2 Bus1=18960321.1.3 Bus2=18960322.1.3 switch=y r1=0.001 x1=0.001 r0=0.001 x0=0.001 Length=0.001 units=km
New Line.4837901E:18935935 phases=3 Bus1=18935937.1.2.3 Bus2=18935938.1.2.3 switch=y r1=0.001 x1=0.001 r0=0.001 x0=0.001 Length=0.001 units=km
New Line.2370335E:18960005 phases=2 Bus1=18960007.1.3 Bus2=18960008.1.3 switch=y r1=0.001 x1=0.001 r0=0.001 x0=0.001 Length=0.001 units=km
New Line.4491755E:18961007 phases=2 Bus1=18961009.1.3 Bus2=18961010.1.3 switch=y r1=0.001 x1=0.001 r0=0.001 x0=0.001 Length=0.001 units=km
New Line.1661057E:298226901 phases=2 Bus1=298226903.1.2 Bus2=298226904.1.2 switch=y r1=0.001 x1=0.001 r0=0.001 x0=0.001 Length=0.001 units=km
New Line.4011889E:18919735 phases=2 Bus1=18919737.1.3 Bus2=18919738.1.3 switch=y r1=0.001 x1=0.001 r0=0.001 x0=0.001 Length=0.001 units=km
New Line.2370336E:18919835 phases=2 Bus1=18919837.1.3 Bus2=18919838.1.3 switch=y r1=0.001 x1=0.001 r0=0.001 x0=0.001 Length=0.001 units=km
New Line.2338005E:17111202 phases=2 Bus1=17111204.1.3 Bus2=17111205.1.3 switch=y r1=0.001 x1=0.001 r0=0.001 x0=0.001 Length=0.001 units=km
New Line.4073614E:17132844 phases=2 Bus1=17132846.1.3 Bus2=17132847.1.3 switch=y r1=0.001 x1=0.001 r0=0.001 x0=0.001 Length=0.001 units=km
...

! Loads
New Load.2259900E_0 Bus1=-99999917132149.1.0 phases=1 kV=0.069282 kW=0 kvar=0 model=1
New Load.2259900E_1 Bus1=-99999917132149.2.0 phases=1 kV=0.069282 kW=0 kvar=0 model=1
New Load.4205954E_0 Bus1=-99999917129880.3.0 phases=1 kV=0.069282 kW=0 kvar=0 model=1
New Load.4205954E_1 Bus1=-99999917129880.1.0 phases=1 kV=0.069282 kW=0 kvar=0 model=1
New Load.4516094E_0 Bus1=-99999917154049.3.0 phases=1 kV=0.069282 kW=0 kvar=0 model=1
New Load.4516094E_1 Bus1=-99999917154049.1.0 phases=1 kV=0.069282 kW=0 kvar=0 model=1
New Load.2164090E_0 Bus1=-99999917137699.3.0 phases=1 kV=0.069282 kW=0 kvar=0 model=1
New Load.2164090E_1 Bus1=-99999917137699.1.0 phases=1 kV=0.069282 kW=0 kvar=0 model=1
New Load.4205729E_0 Bus1=-99999917168060.3.0 phases=1 kV=0.069282 kW=0 kvar=0 model=1
New Load.4205729E_1 Bus1=-99999917168060.1.0 phases=1 kV=0.069282 kW=0 kvar=0 model=1
New Load.2227320E_0 Bus1=-99999917169152.3.0 phases=1 kV=0.069282 kW=0 kvar=0 model=1
New Load.2227320E_1 Bus1=-99999917169152.1.0 phases=1 kV=0.069282 kW=0 kvar=0 model=1
New Load.2139600E_0 Bus1=-99999917137724.3.0 phases=1 kV=0.069282 kW=0 kvar=0 model=1
...